examples/national_grid/data/ireland/models/2008/sp2009.raw
<!DOCTYPE HTML PUBLIC "-//W3C//DTD HTML 4.0 Transitional//EN">
<!-- saved from url=(0082)http://www.eirgrid.com/EirgridPortal/uploads/Publications/Summer%20Peak%202009.raw -->
<HTML><HEAD>
<META http-equiv=Content-Type content="text/html; charset=windows-1252">
<META content="MSHTML 6.00.2900.3492" name=GENERATOR></HEAD>
<BODY><PRE>0,   100.00          / PSS/E-30.3    WED, NOV 26 2008  10:55
/ CASE: 2009;  AUTUMN 01/07/2009; FORECAST STATEMENT 2008 -
/ FS08_SEP08 - MEMO  GALLERY_T;  15:22:58  TUESDAY, SEPTEMBE
    10,'F_M_____    ',  38.0000,1,     0.000,     0.000,   1,   3,1.03762, -12.4521,   2
    11,'FMN_LOOP    ',  38.0000,1,     0.000,     0.000,   1,   1,1.02329,  -9.0765,   2
    12,'BEDFORD     ',  38.0000,1,     0.000,     0.000,   1,   1,1.02339, -11.1910,   2
    13,'M_R_____    ',  38.0000,1,     0.000,     0.000,   1,   1,1.03911, -13.7030,   2
    14,'F_I_____    ',  38.0000,1,     0.000,     0.000,   1,   3,1.02972, -11.2172,   2
    15,'I_M_____    ',  38.0000,1,     0.000,     0.000,   1,   1,1.03924, -10.9473,   2
  1021,'ARDNACRU    ', 110.0000,1,     0.000,     0.000,   4,   1,1.04880,  -9.3482,   1
  1041,'AGHADA      ', 110.0000,1,     0.000,     0.000,   3,   1,1.05698, -14.0101,   1
  1042,'AGHADA      ', 220.0000,1,     0.000,     0.000,   3,   1,1.07454,  -4.2403,   1
  1052,'AGHADA2     ', 220.0000,1,     0.000,     0.000,   3,   1,1.07153, -14.0165,   1
  1061,'ARIGNA      ', 110.0000,1,     0.000,     0.000,   9,   1,1.04836,  -6.9950,   2
  1062,'AGHADA3     ', 220.0000,1,     0.000,     0.000,   3,   1,1.07153, -14.0165,   1
  1071,'AGANNYGA    ', 110.0000,1,     0.000,     0.000,   4,   1,1.06790,  -7.0092,   1
  1072,'AGHADA4     ', 220.0000,1,     0.000,     0.000,   3,   1,1.07470,  -4.2051,   1
  1081,'AHANE       ', 110.0000,1,     0.000,     0.000,   7,   1,1.05125,  -9.4005,   2
  1101,'ANNER       ', 110.0000,1,     0.000,     0.000,   5,   3,1.03199, -15.9577,   5
  1121,'ARKLOW      ', 110.0000,1,     0.000,     0.000,   6,   1,1.05648, -10.5291,   1
  1122,'ARKLOW      ', 220.0000,1,     0.000,     0.000,   6,   1,1.06208,  -7.9312,   1
  1131,'ATHEA       ', 110.0000,1,     0.000,     0.000,   7,   5,1.07500,  -4.9446,   4
  1141,'ATHLONE     ', 110.0000,1,     0.000,     0.000,   9,   1,1.06534,  -7.8893,   1
  1161,'AUGHINIS    ', 110.0000,1,     0.000,     0.000,   7,   3,1.07500,  -4.2584,   1
  1181,'ARVA        ', 110.0000,1,     0.000,     0.000,  10,   1,1.03391,  -7.8386,   1
  1201,'ARTANE      ', 110.0000,1,     0.000,     0.000,   1,   1,1.04727,  -5.7132,   2
  1221,'ATHY        ', 110.0000,1,     0.000,     0.000,   8,   1,1.04634,  -9.9073,   1
  1231,'BALLYWAT    ', 110.0000,1,     0.000,     0.000,   6,   1,1.06115, -13.0872,   4
  1251,'BOOLTIAG    ', 110.0000,1,     0.000,     0.000,   4,   1,1.04003,  -8.4716,   2
  1271,'BALTRASN    ', 110.0000,1,     0.000,     0.000,  10,   1,1.04120,  -6.3857,   1
  1281,'BALLYLIC    ', 110.0000,1,     0.000,     0.000,   3,   1,1.04878, -13.3912,   2
  1301,'BALLYBEG    ', 110.0000,1,     0.000,     0.000,   6,   1,1.04784, -10.6153,   1
  1321,'BLAKE       ', 110.0000,1,     0.000,     0.000,   8,   1,1.04007,  -7.8331,   2
  1341,'BINBANE     ', 110.0000,1,     0.000,     0.000,   9,   1,1.03349,  -6.6302,   2
  1351,'BARODA      ', 110.0000,1,     0.000,     0.000,   8,   1,1.04414,  -8.2939,   1
  1361,'BALLYDIN    ', 110.0000,1,     0.000,     0.000,   5,   1,1.03460, -15.3311,   1
  1381,'BARNAHEL    ', 110.0000,1,     0.000,     0.000,   3,   1,1.06112, -14.1450,   1
  1401,'BELLACOR    ', 110.0000,1,     0.000,     0.000,   9,   1,1.05196, -10.5135,   1
  1421,'BLACKROC    ', 110.0000,1,     0.000,     0.000,   1,   2,1.04421,  -9.2572,   2
  1441,'BANDON      ', 110.0000,1,     0.000,     0.000,   3,   1,1.05345, -14.7185,   1
  1461,'BARRYMOR    ', 110.0000,1,     0.000,     0.000,   5,   1,1.04547, -14.2894,   2
  1481,'BUTLERST    ', 110.0000,1,     0.000,     0.000,   5,   1,1.04036, -14.0407,   1
  1501,'BRINNY      ', 110.0000,1,     0.000,     0.000,   3,   1,1.05331, -14.7268,   5
  1511,'BRINNY      ', 110.0000,1,     0.000,     0.000,   3,   1,1.05332, -14.7264,   5
  1581,'CABRA       ', 110.0000,1,     0.000,     0.000,   1,   2,1.04595,  -5.7893,   2
  1601,'CLASHAVO    ', 110.0000,1,     0.000,     0.000,   3,   1,1.07096, -10.6074,   1
  1602,'CLASHAVO    ', 220.0000,1,     0.000,     0.000,   3,   1,1.07022,  -5.7757,   1
  1611,'CLONKEEN    ', 110.0000,1,     0.000,     0.000,   7,   1,1.07320,  -8.8157,   1
  1621,'COOLROE     ', 110.0000,1,     0.000,     0.000,   3,   1,1.06232, -12.9877,   1
  1631,'CORDERRY    ', 110.0000,1,     0.000,     0.000,   9,   1,1.04697,  -7.2342,   1
  1641,'CASHLA      ', 110.0000,1,     0.000,     0.000,   9,   1,1.07531,  -5.0032,   1
  1642,'CASHLA      ', 220.0000,1,     0.000,     0.000,   9,   1,1.06930,  -1.4942,   1
  1651,'CLAHANE     ', 110.0000,1,     0.000,     0.000,   7,   5,1.07500,  -5.8055,   1
  1661,'CASTLEBA    ', 110.0000,1,     0.000,     0.000,   9,   1,1.05624, -10.2944,   1
  1681,'CARRIGAD    ', 110.0000,1,     0.000,     0.000,   3,   1,1.06872, -11.7297,   1
  1691,'CENTRAL     ', 110.0000,1,     0.000,     0.000,   1,   1,1.04528,  -9.1746,   1
  1701,'CATH_FAL    ', 110.0000,1,     0.000,     0.000,   9,   1,1.05000,  -6.9002,   1
  1711,'CROMCAST    ', 110.0000,1,     0.000,     0.000,   1,   1,1.07672,  -4.8968,   1
  1721,'CAHIR       ', 110.0000,1,     0.000,     0.000,   5,   1,1.04003, -15.5552,   1
  1731,'CROMCAST    ', 110.0000,1,     0.000,     0.000,   1,   1,1.07672,  -4.8968,   1
  1741,'CARRICKM    ', 110.0000,1,     0.000,     0.000,   2,   2,1.04540,  -9.1640,   2
  1742,'CARRICKM    ', 220.0000,1,     0.000,     0.000,   2,   2,1.07139,  -5.0031,   1
  1761,'CLIFF       ', 110.0000,1,     0.000,     0.000,   9,   1,1.05111,  -6.8149,   1
  1781,'CASTLEFA    ', 110.0000,1,     0.000,     0.000,   7,   3,1.07464,  -4.2760,   5
  1791,'CASTLEFA    ', 110.0000,1,     0.000,     0.000,   7,   3,1.07463,  -4.2771,   5
  1801,'COOKSTOW    ', 110.0000,1,     0.000,     0.000,   1,   2,1.02150, -10.5969,   2
  1821,'CLOON       ', 110.0000,1,     0.000,     0.000,   9,   1,1.07013,  -6.8329,   1
  1841,'CRANE       ', 110.0000,1,     0.000,     0.000,   6,   1,1.05502, -13.2194,   1
  1851,'CHERRYWO    ', 110.0000,1,     0.000,     0.000,   2,   1,1.04377,  -9.2487,   1
  1861,'CARICKON    ', 110.0000,1,     0.000,     0.000,   9,   1,1.05209,  -6.8089,   1
  1871,'COLLEGE     ', 110.0000,1,     0.000,     0.000,   2,   1,1.05424,  -5.3014,   1
  1881,'CHARLEVI    ', 110.0000,1,     0.000,     0.000,   3,   1,1.03301, -11.6406,   1
  1901,'CARLOW      ', 110.0000,1,     0.000,     0.000,   6,   1,1.05445, -10.7391,   1
  1921,'COW CROS    ', 110.0000,1,     0.000,     0.000,   3,   1,1.05749, -13.9870,   1
  1931,'CUNGHILL    ', 110.0000,1,     0.000,     0.000,   9,   1,1.05070,  -8.7535,   4
  1941,'CUSHALIN    ', 110.0000,1,     0.000,     0.000,   8,   1,1.07500,  -5.8405,   1
  1961,'CASTLEVI    ', 110.0000,1,     0.000,     0.000,   3,   1,1.05518, -13.3426,   1
  1971,'COOMAGEA    ', 110.0000,1,     0.000,     0.000,   7,   1,1.07500,  -8.5678,   4
  1981,'CORRACLA    ', 110.0000,1,     0.000,     0.000,   9,   1,1.04032,  -8.3999,   1
  2001,'CULLENAG    ', 110.0000,1,     0.000,     0.000,   5,   1,1.04707, -13.7578,   1
  2002,'CULLENAG    ', 220.0000,1,     0.000,     0.000,   5,   1,1.06018, -11.3050,   1
  2021,'CITY WES    ', 110.0000,1,     0.000,     0.000,   1,   1,1.06010,  -7.2468,   2
  2031,'CHARLESL    ', 110.0000,1,     0.000,     0.000,   6,   1,1.04121, -10.3277,   1
  2041,'CORDUFF     ', 110.0000,1,     0.000,     0.000,   2,   1,1.05514,  -5.2118,   1
  2042,'CORDUFF     ', 220.0000,1,     0.000,     0.000,   2,   1,1.07444,  -1.8150,   1
  2051,'CORDUFF     ', 110.0000,1,     0.000,     0.000,   2,   1,1.05514,  -5.2118,   1
  2081,'DUNKETTL    ', 110.0000,4,     0.000,     0.000,   3,   1,1.00000,   0.0000,   5
  2101,'DUNDALK     ', 110.0000,1,     0.000,     0.000,  10,   1,1.04870,  -5.7730,   2
  2121,'DRUMLINE    ', 110.0000,1,     0.000,     0.000,   4,   1,1.03479,  -9.5775,   1
  2141,'DUNGARVA    ', 110.0000,1,     0.000,     0.000,   5,   1,1.03660, -14.2170,   1
  2161,'DOON        ', 110.0000,1,     0.000,     0.000,   5,   1,1.03258, -15.9233,   1
  2181,'DRYBRIDG    ', 110.0000,1,     0.000,     0.000,  10,   1,1.03185,  -7.1787,   1
  2202,'DUNSTOWN    ', 220.0000,1,     0.000,     0.000,   2,   1,1.07519,  -3.6887,   1
  2204,'DUNSTOWN    ', 380.0000,1,     0.000,     0.000,   2,   1,1.02361,   0.5112,   1
  2221,'DUNMANWA    ', 110.0000,1,     0.000,     0.000,   3,   1,1.05540, -13.6266,   1
  2231,'DERRYBRI    ', 110.0000,1,     0.000,     0.000,   4,   1,1.07203,  -6.7645,   2
  2241,'DALLOW      ', 110.0000,1,     0.000,     0.000,   5,   1,1.06377,  -6.8728,   2
  2251,'DARDISTO    ', 110.0000,1,     0.000,     0.000,   1,   1,1.07739,  -4.8596,   1
  2261,'DERRYIRO    ', 110.0000,1,     0.000,     0.000,   8,   1,1.04913,  -7.2666,   1
  2281,'DALTON      ', 110.0000,1,     0.000,     0.000,   9,   1,1.05703,  -9.6911,   1
  2301,'DUNFIRTH    ', 110.0000,1,     0.000,     0.000,   8,   1,1.04913,  -6.9514,   2
  2321,'DRUMKEEN    ', 110.0000,1,     0.000,     0.000,   9,   1,1.04959,  -6.0132,   1
  2361,'ENNIS       ', 110.0000,1,     0.000,     0.000,   4,   1,1.04085,  -8.7541,   1
  2481,'FASS EAS    ', 110.0000,1,     0.000,     0.000,   2,   2,1.04037,  -9.4342,   2
  2491,'FASS WES    ', 110.0000,1,     0.000,     0.000,   2,   2,1.04061,  -9.4210,   2
  2521,'FLAGFORD    ', 110.0000,1,     0.000,     0.000,   9,   1,1.05451,  -6.6891,   1
  2522,'FLAGFORD    ', 220.0000,1,     0.000,     0.000,   9,   1,1.05878,  -3.8292,   1
  2541,'FRN ST A    ', 110.0000,1,     0.000,     0.000,   1,   2,1.05486,  -8.2482,   2
  2551,'FRN ST B    ', 110.0000,1,     0.000,     0.000,   1,   2,1.06203,  -7.1231,   2
  2561,'FIN_URBA    ', 110.0000,1,     0.000,     0.000,   2,   2,1.04971,  -5.5432,   1
  2562,'FINGLAS     ', 220.0000,1,     0.000,     0.000,   2,   2,1.07500,  -1.9267,   1
  2571,'FIN_RURA    ', 110.0000,1,     0.000,     0.000,   2,   2,1.07715,  -4.7881,   1
  2581,'FIN_SUBU    ', 110.0000,1,     0.000,     0.000,   2,   1,1.05416,  -5.3225,   1
  2591,'FIN_OPEN    ', 110.0000,1,     0.000,     0.000,   2,   1,1.07500,  -1.9267,   2
  2681,'GILRA       ', 110.0000,1,     0.000,     0.000,   9,   3,1.05568,  -6.9869,   2
  2701,'GLASMORE    ', 110.0000,1,     0.000,     0.000,   1,   2,1.06770,  -5.4660,   2
  2721,'GRIFFINR    ', 110.0000,1,     0.000,     0.000,   2,   2,1.05648,  -7.0226,   2
  2731,'GLANLEE     ', 110.0000,1,     0.000,     0.000,   7,   5,1.07504,  -8.5511,   4
  2741,'GREAT IS    ', 110.0000,1,     0.000,     0.000,   6,   1,1.04849, -13.2133,   1
  2742,'GREAT IS    ', 220.0000,1,     0.000,     0.000,   6,   1,1.06481, -10.1387,   1
  2761,'GRANGE      ', 110.0000,1,     0.000,     0.000,   1,   2,1.07592,  -4.9341,   2
  2771,'GARROW      ', 110.0000,1,     0.000,     0.000,   7,   1,1.07500,  -8.7175,   7
  2781,'GALWAY      ', 110.0000,1,     0.000,     0.000,   9,   1,1.05803,  -5.9880,   1
  2801,'GOLAGH      ', 110.0000,1,     0.000,     0.000,   9,   1,1.04904,  -6.4570,   4
  2821,'GORTAWEE    ', 110.0000,1,     0.000,     0.000,   9,   1,1.03771,  -8.6639,   1
  2841,'GORMAN      ', 110.0000,1,     0.000,     0.000,  10,   1,1.04012,  -7.0947,   1
  2842,'GORMAN      ', 220.0000,1,     0.000,     0.000,  10,   1,1.05421,  -4.1584,   1
  2852,'GLANAGOW    ', 220.0000,1,     0.000,     0.000,   3,   1,1.07162, -14.0171,   1
  2861,'GRANGE C    ', 110.0000,1,     0.000,     0.000,   1,   1,1.04817,  -7.5936,   2
  2881,'GLENLARA    ', 110.0000,1,     0.000,     0.000,   3,   1,1.02263, -11.4918,   2
  2941,'HAROLDS     ', 110.0000,1,     0.000,     0.000,   1,   2,1.05497,  -8.2468,   2
  2962,'HUNTSTOW    ', 220.0000,1,     0.000,     0.000,   2,   1,1.07527,  -1.8243,   4
  2972,'HUNTSTOW    ', 220.0000,1,     0.000,     0.000,   2,   1,1.07491,  -1.4751,   4
  3061,'INISCARR    ', 110.0000,1,     0.000,     0.000,   3,   1,1.06452, -12.8224,   1
  3081,'INCH_CIT    ', 110.0000,1,     0.000,     0.000,   1,   2,1.06383,  -7.0101,   2
  3082,'INCHICOR    ', 220.0000,1,     0.000,     0.000,   2,   2,1.07361,  -5.0042,   1
  3091,'INCH_COU    ', 110.0000,1,     0.000,     0.000,   1,   1,1.05469,  -7.1582,   2
  3101,'IKERRIN     ', 110.0000,1,     0.000,     0.000,   5,   1,1.01699, -12.7852,   2
  3122,'IRISHTOW    ', 220.0000,1,     0.000,     0.000,   2,   1,1.07500,  -4.5002,   1
  3201,'KNOCKRAH    ', 110.0000,1,     0.000,     0.000,   3,   1,1.05892, -12.7698,   1
  3202,'KNOCKRAH    ', 220.0000,1,     0.000,     0.000,   3,   1,1.06858,  -5.5471,   1
  3212,'KNOCKRAH    ', 220.0000,1,     0.000,     0.000,   3,   1,1.06155, -12.9156,   1
  3221,'KILBARRY    ', 110.0000,1,     0.000,     0.000,   3,   1,1.05627, -13.5418,   1
  3241,'KILTEEL     ', 110.0000,1,     0.000,     0.000,   8,   1,1.05093,  -8.4151,   2
  3261,'KILKENNY    ', 110.0000,1,     0.000,     0.000,   6,   1,1.03291, -13.6590,   1
  3281,'KILLONAN    ', 110.0000,1,     0.000,     0.000,   7,   1,1.05153,  -9.3778,   1
  3282,'KILLONAN    ', 220.0000,1,     0.000,     0.000,   7,   1,1.05604,  -5.8418,   1
  3301,'KNOCKERA    ', 110.0000,1,     0.000,     0.000,   7,   1,1.06058,  -8.7854,   1
  3321,'KNOCKUMB    ', 110.0000,1,     0.000,     0.000,  10,   3,1.03295,  -7.7009,   5
  3341,'KELLIS      ', 110.0000,1,     0.000,     0.000,   6,   1,1.05986, -10.6407,   1
  3342,'KELLIS      ', 220.0000,1,     0.000,     0.000,   6,   1,1.05424,  -7.8348,   1
  3361,'KILTOY      ', 110.0000,1,     0.000,     0.000,   9,   3,1.04600,  -6.2965,   5
  3381,'KINNEGAD    ', 110.0000,1,     0.000,     0.000,   8,   1,1.04714,  -7.3438,   1
  3401,'KILLOTER    ', 110.0000,1,     0.000,     0.000,   5,   1,1.04194, -13.9448,   1
  3421,'KILMORE     ', 110.0000,1,     0.000,     0.000,   1,   1,1.07670,  -4.8965,   2
  3501,'LANESBOR    ', 110.0000,1,     0.000,     0.000,   9,   1,1.07303,  -6.6705,   1
  3521,'LOUTH       ', 110.0000,1,     0.000,     0.000,  10,   1,1.06444,  -5.1385,   1
  3522,'LOUTH       ', 220.0000,1,     0.000,     0.000,  10,   1,1.05139,  -2.5570,   1
  3541,'LIMERICK    ', 110.0000,1,     0.000,     0.000,   7,   1,1.04481,  -9.1255,   1
  3561,'LISDRUM     ', 110.0000,1,     0.000,     0.000,  10,   1,1.02498,  -7.3687,   1
  3572,'LONGPOIN    ', 220.0000,1,     0.000,     0.000,   3,   1,1.07500,  -4.1578,   1
  3581,'LETTERKE    ', 110.0000,1,     0.000,     0.000,   9,   1,1.04599,  -6.2962,   1
  3601,'LIBERTY     ', 110.0000,1,     0.000,     0.000,   3,   1,1.05886, -13.8078,   2
  3611,'LIBERTY     ', 110.0000,1,     0.000,     0.000,   3,   1,1.05900, -13.8002,   2
  3621,'LISHEEN     ', 110.0000,1,     0.000,     0.000,   5,   1,1.00153, -15.5910,   5
  3751,'MISERY H    ', 110.0000,1,     0.000,     0.000,   1,   1,1.05560,  -8.2008,   2
  3761,'MACETOWN    ', 110.0000,1,     0.000,     0.000,   1,   2,1.05338,  -5.3555,   1
  3781,'MCDERMOT    ', 110.0000,1,     0.000,     0.000,   1,   2,1.04618,  -5.7713,   2
  3801,'MIDLETON    ', 110.0000,1,     0.000,     0.000,   3,   1,1.05027, -13.4908,   1
  3821,'MEATH HI    ', 110.0000,1,     0.000,     0.000,  10,   1,1.04870,  -5.7074,   2
  3841,'MAYNOOTH    ', 110.0000,1,     0.000,     0.000,   2,   2,1.05843,  -6.8931,   1
  3842,'MAYNOOTH    ', 220.0000,1,     0.000,     0.000,   2,   2,1.06908,  -4.6153,   1
  3851,'MAYNOOTH    ', 110.0000,1,     0.000,     0.000,   2,   2,1.05546,  -6.1299,   1
  3852,'MAYNOOTH    ', 220.0000,1,     0.000,     0.000,   2,   2,1.07180,  -4.0386,   1
  3861,'MILLTOWN    ', 110.0000,1,     0.000,     0.000,   1,   2,1.05558,  -8.1899,   2
  3871,'MILLTOWN    ', 110.0000,1,     0.000,     0.000,   1,   2,1.06191,  -7.2001,   2
  3881,'MACROOM     ', 110.0000,1,     0.000,     0.000,   3,   1,1.06885, -11.6731,   1
  3901,'MONETEEN    ', 110.0000,1,     0.000,     0.000,   7,   1,1.04835,  -8.2950,   1
  3934,'MNYPG1      ', 380.0000,1,     0.000,     6.000,   4,   1,1.07500,   7.0568,   1
  3941,'MONEYPOI    ', 110.0000,1,     0.000,     0.000,   4,   1,1.03439,  -8.2965,   1
  3942,'MONEYPOI    ', 220.0000,1,     0.000,     0.000,   7,   1,1.08160,  -0.8801,   1
  3944,'MNYPG3      ', 380.0000,1,     0.000,     6.000,   4,   1,1.07500,   7.0568,   1
  3954,'MNYPG2      ', 380.0000,1,     0.000,     6.000,   7,   1,1.07500,   3.2653,   1
  3961,'MARINA      ', 110.0000,1,     0.000,     0.000,   3,   1,1.05912, -13.7921,   1
  3981,'MUNGRET     ', 110.0000,1,     0.000,     0.000,   7,   3,1.04810,  -8.3089,   5
  3991,'MUNGRET     ', 110.0000,1,     0.000,     0.000,   7,   3,1.04810,  -8.3082,   5
  4001,'MULLINGA    ', 110.0000,1,     0.000,     0.000,   9,   1,1.03448,  -7.7069,   1
  4021,'MALLOW      ', 110.0000,1,     0.000,     0.000,   3,   1,1.03705, -12.7071,   1
  4041,'MOY         ', 110.0000,1,     0.000,     0.000,   9,   1,1.05046, -10.6032,   1
  4061,'MULLAGHA    ', 110.0000,1,     0.000,     0.000,  10,   1,1.05086,  -5.7404,   2
  4071,'MEENTYCA    ', 110.0000,1,     0.000,     0.000,   9,   1,1.05166,  -5.7459,   4
  4081,'MONREAD     ', 110.0000,1,     0.000,     0.000,   8,   1,1.04774,  -8.3243,   1
  4201,'NEWBRIDG    ', 110.0000,1,     0.000,     0.000,   8,   1,1.04412,  -8.0861,   1
  4211,'NORTH QU    ', 110.0000,1,     0.000,     0.000,   1,   1,1.05612,  -8.1579,   2
  4221,'NAVAN       ', 110.0000,1,     0.000,     0.000,  10,   1,1.03719,  -7.4790,   1
  4242,'NORTH WA    ', 220.0000,1,     0.000,     0.000,   2,   2,1.07655,  -2.0248,   1
  4261,'NENAGH      ', 110.0000,1,     0.000,     0.000,   7,   1,1.02581, -10.6760,   2
  4281,'NANGOR      ', 110.0000,1,     0.000,     0.000,   1,   1,1.04797,  -7.6054,   2
  4341,'OLDCOURT    ', 110.0000,1,     0.000,     0.000,   3,   3,1.05747, -13.9880,   5
  4351,'OLDCOURT    ', 110.0000,1,     0.000,     0.000,   3,   3,1.05749, -13.9871,   5
  4361,'OUGHTRAG    ', 110.0000,1,     0.000,     0.000,   7,   1,1.05017,  -8.2044,   2
  4382,'OLDSTREE    ', 220.0000,1,     0.000,     0.000,   4,   1,1.07172,   3.8704,   1
  4384,'OLDSTREE    ', 380.0000,1,     0.000,     0.000,   4,   1,1.06363,   4.2443,   1
...
0 / END OF BUS DATA, BEGIN LOAD DATA
    10,'LD',1,   1,   1,    92.240,    34.770,     0.000,     0.000,     0.000,     0.000,   2
    11,'LD',1,   1,   1,    43.710,    14.910,     0.000,     0.000,     0.000,     0.000,   2
    12,'LD',1,   1,   1,    37.180,    20.140,     0.000,     0.000,     0.000,     0.000,   2
    13,'LD',1,   1,   1,    69.990,    22.790,     0.000,     0.000,     0.000,     0.000,   2
    14,'LD',1,   1,   1,    55.480,    19.970,     0.000,     0.000,     0.000,     0.000,   2
    15,'LD',1,   1,   1,    60.500,    15.090,     0.000,     0.000,     0.000,     0.000,   2
  1041,'LD',1,   3,   1,     1.710,     0.910,     0.000,     0.000,     0.000,     0.000,   2
  1101,'DM',1,   5,   2,    11.000,     3.840,     0.000,     0.000,     0.000,     0.000,   5
  1101,'MI',0,   5,   2,     5.620,     1.680,     0.000,     0.000,     0.000,     0.000,   5
  3621,'DM',1,   5,   2,    19.000,     6.200,     0.000,     0.000,     0.000,     0.000,   5
  4341,'DM',1,   3,   2,     0.280,     0.100,     0.000,     0.000,     0.000,     0.000,   5
  4901,'DM',1,   6,   2,     2.290,     0.800,     0.000,     0.000,     0.000,     0.000,   5
 10204,'LD',1,   4,   1,   -12.970,    -6.850,     0.000,     0.000,     0.000,     0.000,   2
 10205,'LD',1,   4,   1,    54.800,    22.490,     0.000,     0.000,     0.000,     0.000,   2
 10471,'HL',0,   3,   1,    11.990,     4.310,     0.000,     0.000,     0.000,     0.000,   3
 10475,'HL',0,   3,   1,     0.300,     0.100,     0.000,     0.000,     0.000,     0.000,   3
 10602,'LD',1,   9,   1,     4.030,     1.120,     0.000,     0.000,     0.000,     0.000,   2
 10801,'LD',1,   7,   1,     3.940,     1.290,     0.000,     0.000,     0.000,     0.000,   2
 11204,'LD',1,   6,   1,    41.930,    14.270,     0.000,     0.000,     0.000,     0.000,   2
 11404,'LD',1,   9,   1,    62.790,    25.800,     0.000,     0.000,     0.000,     0.000,   2
 12001,'LD',1,   1,   1,    11.630,     3.420,     0.000,     0.000,     0.000,     0.000,   2
 12202,'LD',1,   8,   1,    17.080,     5.620,     0.000,     0.000,     0.000,     0.000,   2
 12702,'DM',1,  10,   2,     6.000,     2.000,     0.000,     0.000,     0.000,     0.000,   5
 12702,'LD',1,  10,   1,    13.700,     3.650,     0.000,     0.000,     0.000,     0.000,   2
 12804,'LD',1,   3,   1,     8.560,     5.140,     0.000,     0.000,     0.000,     0.000,   2
 13001,'LD',1,   6,   1,     9.130,     1.070,     0.000,     0.000,     0.000,     0.000,   2
 13204,'LD',1,   8,   1,    23.970,    14.270,     0.000,     0.000,     0.000,     0.000,   2
 13404,'LD',1,   9,   1,    17.150,     9.100,     0.000,     0.000,     0.000,     0.000,   2
 13501,'DM',1,   8,   2,    19.000,     5.900,     0.000,     0.000,     0.000,     0.000,   5
 13601,'DM',1,   5,   2,     5.900,     1.900,     0.000,     0.000,     0.000,     0.000,   5
 13601,'MI',0,   5,   2,     1.220,     0.360,     0.000,     0.000,     0.000,     0.000,   5
 13604,'LD',1,   5,   1,     7.650,     3.310,     0.000,     0.000,     0.000,     0.000,   2
 13802,'LD',1,   3,   1,    27.340,     8.980,     0.000,     0.000,     0.000,     0.000,   2
 13804,'LD',1,   3,   1,    17.240,     2.530,     0.000,     0.000,     0.000,     0.000,   2
 14002,'LD',1,   9,   1,     4.240,     1.380,     0.000,     0.000,     0.000,     0.000,   2
 14204,'LD',1,   1,   1,    23.770,     9.760,     0.000,     0.000,     0.000,     0.000,   2
 14401,'LD',1,   3,   1,     4.420,     1.450,     0.000,     0.000,     0.000,     0.000,   2
 14404,'LD',1,   3,   1,    28.310,     7.730,     0.000,     0.000,     0.000,     0.000,   2
 14604,'LD',1,   5,   1,    31.960,     5.710,     0.000,     0.000,     0.000,     0.000,   2
 14804,'LD',1,   5,   1,    41.210,    12.560,     0.000,     0.000,     0.000,     0.000,   2
 15001,'DM',1,   3,   2,     4.200,     1.400,     0.000,     0.000,     0.000,     0.000,   5
 15001,'MI',0,   3,   2,     1.970,     0.590,     0.000,     0.000,     0.000,     0.000,   5
 15801,'LD',1,   1,   1,    13.040,     4.280,     0.000,     0.000,     0.000,     0.000,   2
 16202,'LD',1,   3,   1,    14.540,     4.620,     0.000,     0.000,     0.000,     0.000,   2
 16604,'LD',1,   9,   1,    45.840,    22.440,     0.000,     0.000,     0.000,     0.000,   2
 16901,'LD',1,   1,   1,     5.210,     1.830,     0.000,     0.000,     0.000,     0.000,   2
 17004,'LD',1,   9,   1,    15.170,     5.490,     0.000,     0.000,     0.000,     0.000,   2
 17204,'DM',1,   5,   2,     2.900,     1.000,     0.000,     0.000,     0.000,     0.000,   5
 17204,'LD',1,   5,   1,    25.000,     8.680,     0.000,     0.000,     0.000,     0.000,   2
 17404,'LD',1,   2,   1,    49.590,    15.230,     0.000,     0.000,     0.000,     0.000,   2
 17802,'DM',1,   7,   2,    44.000,    14.500,     0.000,     0.000,     0.000,     0.000,   5
 17802,'MI',0,   7,   2,     5.000,     1.500,     0.000,     0.000,     0.000,     0.000,   5
 18004,'LD',1,   1,   1,    58.680,    21.120,     0.000,     0.000,     0.000,     0.000,   2
 18204,'LD',1,   9,   1,    19.000,     5.190,     0.000,     0.000,     0.000,     0.000,   2
 18402,'LD',1,   6,   1,     2.750,     0.900,     0.000,     0.000,     0.000,     0.000,   2
 18404,'LD',1,   6,   1,    22.260,    10.270,     0.000,     0.000,     0.000,     0.000,   2
 18501,'LD',1,   2,   1,    24.290,     7.980,     0.000,     0.000,     0.000,     0.000,   2
 18604,'LD',1,   9,   1,    27.280,    11.420,     0.000,     0.000,     0.000,     0.000,   2
 18701,'DM',1,   2,   2,    22.800,     7.500,     0.000,     0.000,     0.000,     0.000,   5
 18701,'LD',1,   2,   1,    17.120,     6.050,     0.000,     0.000,     0.000,     0.000,   2
 18804,'LD',1,   3,   1,    15.870,     7.990,     0.000,     0.000,     0.000,     0.000,   2
 19004,'LD',1,   6,   1,    42.380,    19.040,     0.000,     0.000,     0.000,     0.000,   2
 19204,'LD',1,   3,   1,    16.950,     5.570,     0.000,     0.000,     0.000,     0.000,   2
 19471,'HL',1,   8,   2,    11.700,     4.210,     0.000,     0.000,     0.000,     0.000,   4
 19601,'LD',1,   3,   1,    23.890,     7.850,     0.000,     0.000,     0.000,     0.000,   2
 20201,'LD',1,   1,   1,    17.880,     5.870,     0.000,     0.000,     0.000,     0.000,   2
 20301,'DM',1,   6,   2,    25.000,     8.190,     0.000,     0.000,     0.000,     0.000,   5
 21004,'LD',1,  10,   1,    36.300,    18.960,     0.000,     0.000,     0.000,     0.000,   2
 21204,'LD',1,   4,   1,    38.570,    12.340,     0.000,     0.000,     0.000,     0.000,   2
 21404,'LD',1,   5,   1,    27.400,     9.130,     0.000,     0.000,     0.000,     0.000,   2
 21604,'LD',1,   5,   1,    30.140,     9.480,     0.000,     0.000,     0.000,     0.000,   2
 21804,'LD',1,  10,   1,    63.590,    23.970,     0.000,     0.000,     0.000,     0.000,   2
 22204,'LD',1,   3,   1,    28.650,    10.160,     0.000,     0.000,     0.000,     0.000,   2
 22404,'LD',1,   5,   1,     9.700,     4.340,     0.000,     0.000,     0.000,     0.000,   2
 22501,'LD',1,   1,   1,     6.180,     1.960,     0.000,     0.000,     0.000,     0.000,   2
 22671,'HL',0,   8,   1,     0.300,     0.100,     0.000,     0.000,     0.000,     0.000,   1
 22672,'HL',0,   8,   1,     0.300,     0.100,     0.000,     0.000,     0.000,     0.000,   1
 22804,'LD',1,   9,   1,    21.690,     4.660,     0.000,     0.000,     0.000,     0.000,   2
 23001,'LD',1,   8,   1,     3.820,     1.260,     0.000,     0.000,     0.000,     0.000,   2
 23601,'LD',1,   4,   1,    11.230,     3.740,     0.000,     0.000,     0.000,     0.000,   2
 23604,'LD',1,   4,   1,    31.810,    11.210,     0.000,     0.000,     0.000,     0.000,   2
 24804,'LD',1,   2,   1,    45.780,    14.040,     0.000,     0.000,     0.000,     0.000,   2
 25604,'LD',1,   2,   1,    58.690,    18.110,     0.000,     0.000,     0.000,     0.000,   2
 26802,'DM',1,   9,   2,    11.870,     3.900,     0.000,     0.000,     0.000,     0.000,   5
 27004,'LD',1,   1,   1,    32.970,    11.600,     0.000,     0.000,     0.000,     0.000,   2
 27204,'LD',1,   2,   1,    55.850,    13.390,     0.000,     0.000,     0.000,     0.000,   2
 27404,'LD',1,   6,   1,    12.790,     7.080,     0.000,     0.000,     0.000,     0.000,   2
 27471,'HL',0,   6,   1,     3.000,     1.080,     0.000,     0.000,     0.000,     0.000,   3
 27472,'HL',0,   6,   1,     3.000,     1.080,     0.000,     0.000,     0.000,     0.000,   3
 27473,'HL',1,   6,   1,     6.200,     2.230,     0.000,     0.000,     0.000,     0.000,   3
 27604,'LD',1,   1,   1,    40.090,    19.040,     0.000,     0.000,     0.000,     0.000,   2
 27801,'LD',1,   9,   1,    33.560,    14.380,     0.000,     0.000,     0.000,     0.000,   2
 27804,'LD',1,   9,   1,   102.780,    32.080,     0.000,     0.000,     0.000,     0.000,   2
 28201,'DM',1,   9,   2,    17.000,     5.600,     0.000,     0.000,     0.000,     0.000,   5
 28201,'MI',0,   9,   2,     3.890,     1.160,     0.000,     0.000,     0.000,     0.000,   5
 28204,'LD',1,   9,   1,     9.130,     2.740,     0.000,     0.000,     0.000,     0.000,   2
 28571,'HL',0,   3,   1,     9.810,     3.530,     0.000,     0.000,     0.000,     0.000,   1
 28601,'DM',1,   1,   2,     5.890,     1.900,     0.000,     0.000,     0.000,     0.000,   5
 28604,'LD',1,   1,   1,    46.120,    13.930,     0.000,     0.000,     0.000,     0.000,   2
 28804,'LD',1,   3,   1,    14.160,     5.940,     0.000,     0.000,     0.000,     0.000,   2
 29401,'LD',1,   1,   1,    21.680,     7.120,     0.000,     0.000,     0.000,     0.000,   2
 29672,'HL',1,   2,   2,     7.000,     2.520,     0.000,     0.000,     0.000,     0.000,   4
 30804,'LD',1,   1,   1,    63.700,    25.550,     0.000,     0.000,     0.000,     0.000,   2
 31004,'LD',1,   5,   1,    22.140,     8.450,     0.000,     0.000,     0.000,     0.000,   2
 31271,'HL',1,   2,   2,     6.390,     2.300,     0.000,     0.000,     0.000,     0.000,   4
 32201,'LD',1,   3,   1,     6.980,     2.280,     0.000,     0.000,     0.000,     0.000,   2
 32204,'LD',1,   3,   1,    68.500,    16.220,     0.000,     0.000,     0.000,     0.000,   2
 32404,'LD',1,   8,   1,    37.710,    19.330,     0.000,     0.000,     0.000,     0.000,   2
 32604,'LD',1,   6,   1,    56.620,    32.840,     0.000,     0.000,     0.000,     0.000,   2
 33004,'LD',1,   7,   1,    31.960,    11.930,     0.000,     0.000,     0.000,     0.000,   2
 33201,'DM',1,  10,   2,    24.220,     8.000,     0.000,     0.000,     0.000,     0.000,   5
 33801,'DM',1,   8,   2,    11.730,     3.900,     0.000,     0.000,     0.000,     0.000,   5
 34001,'LD',1,   5,   1,     2.970,     0.470,     0.000,     0.000,     0.000,     0.000,   2
 34201,'DM',1,   1,   2,    10.070,     3.300,     0.000,     0.000,     0.000,     0.000,   5
 34201,'LD',1,   1,   1,     6.110,     0.800,     0.000,     0.000,     0.000,     0.000,   2
 35004,'LD',1,   9,   1,    11.420,     0.000,     0.000,     0.000,     0.000,     0.000,   2
 35074,'HL',1,   9,   1,     9.000,     3.240,     0.000,     0.000,     0.000,     0.000,   3
 35404,'LD',1,   7,   1,    79.900,    40.710,     0.000,     0.000,     0.000,     0.000,   2
 35604,'LD',1,  10,   1,    29.800,    11.630,     0.000,     0.000,     0.000,     0.000,   2
 35771,'HL',1,   3,   1,     6.750,     2.430,     0.000,     0.000,     0.000,     0.000,   1
 35804,'LD',1,   9,   1,    50.200,    16.820,     0.000,     0.000,     0.000,     0.000,   2
 36001,'LD',1,   3,   1,    17.260,     5.660,     0.000,     0.000,     0.000,     0.000,   2
 37501,'DM',1,   1,   2,     6.180,     2.000,     0.000,     0.000,     0.000,     0.000,   5
 37501,'LD',1,   1,   1,     5.900,     1.940,     0.000,     0.000,     0.000,     0.000,   2
 37601,'LD',1,   2,   1,    28.560,     9.240,     0.000,     0.000,     0.000,     0.000,   2
 37602,'DM',1,   2,   2,     5.000,     1.600,     0.000,     0.000,     0.000,     0.000,   5
 37602,'MI',0,   2,   2,     5.440,     1.630,     0.000,     0.000,     0.000,     0.000,   5
 38001,'LD',1,   3,   1,     8.840,     2.900,     0.000,     0.000,     0.000,     0.000,   2
 38004,'LD',1,   3,   1,    24.320,    11.990,     0.000,     0.000,     0.000,     0.000,   2
 38204,'LD',1,  10,   1,    34.820,    14.770,     0.000,     0.000,     0.000,     0.000,   2
 38601,'LD',1,   1,   1,     7.990,     2.280,     0.000,     0.000,     0.000,     0.000,   2
 38701,'LD',1,   1,   1,     7.990,     2.280,     0.000,     0.000,     0.000,     0.000,   2
 38804,'LD',1,   3,   1,    15.980,     5.710,     0.000,     0.000,     0.000,     0.000,   2
 39471,'HL',1,   4,   1,    18.510,     6.660,     0.000,     0.000,     0.000,     0.000,   3
 39472,'HL',1,   7,   1,    18.510,     6.660,     0.000,     0.000,     0.000,     0.000,   3
 39473,'HL',1,   4,   1,    18.510,     6.660,     0.000,     0.000,     0.000,     0.000,   3
 39601,'LD',1,   3,   1,    22.310,     7.330,     0.000,     0.000,     0.000,     0.000,   2
 39672,'HL',0,   3,   1,     3.000,     1.080,     0.000,     0.000,     0.000,     0.000,   3
 39675,'HL',1,   3,   1,     3.330,     1.200,     0.000,     0.000,     0.000,     0.000,   3
 39801,'DM',1,   7,   2,    25.650,     8.400,     0.000,     0.000,     0.000,     0.000,   5
 40001,'LD',1,   9,   1,    13.240,     3.650,     0.000,     0.000,     0.000,     0.000,   2
 40004,'LD',1,   9,   1,    26.940,    13.590,     0.000,     0.000,     0.000,     0.000,   2
 40204,'LD',1,   3,   1,    17.120,     7.210,     0.000,     0.000,     0.000,     0.000,   2
 40404,'LD',1,   9,   1,    25.230,     7.650,     0.000,     0.000,     0.000,     0.000,   2
 40601,'LD',1,  10,   1,     2.560,     0.820,     0.000,     0.000,     0.000,     0.000,   2
 40602,'DM',1,  10,   2,     7.600,     2.500,     0.000,     0.000,     0.000,     0.000,   5
 40604,'LD',1,  10,   1,    18.220,     5.480,     0.000,     0.000,     0.000,     0.000,   2
 40801,'LD',1,   8,   1,     2.170,     0.720,     0.000,     0.000,     0.000,     0.000,   2
 42004,'LD',1,   8,   1,    36.920,    15.070,     0.000,     0.000,     0.000,     0.000,   2
 42102,'DM',1,   1,   2,     7.220,     2.400,     0.000,     0.000,     0.000,     0.000,   5
 42102,'LD',1,   1,   1,    14.340,     4.710,     0.000,     0.000,     0.000,     0.000,   2
 42204,'LD',1,  10,   1,    45.780,    17.810,     0.000,     0.000,     0.000,     0.000,   2
 42604,'LD',1,   7,   1,    26.030,     8.560,     0.000,     0.000,     0.000,     0.000,   2
 42802,'DM',1,   1,   2,    26.000,     8.500,     0.000,     0.000,     0.000,     0.000,   5
 43604,'LD',1,   7,   1,    28.540,    11.420,     0.000,     0.000,     0.000,     0.000,   2
 44001,'LD',1,   1,   1,    12.670,     4.250,     0.000,     0.000,     0.000,     0.000,   2
 44671,'HL',0,   2,   1,     5.500,     1.980,     0.000,     0.000,     0.000,     0.000,   3
 44672,'HL',0,   2,   1,     5.500,     1.980,     0.000,     0.000,     0.000,     0.000,   3
 44673,'HL',0,   2,   1,    12.990,     4.670,     0.000,     0.000,     0.000,     0.000,   3
 44804,'LD',1,   8,   1,    28.160,    10.790,     0.000,     0.000,     0.000,     0.000,   2
 44901,'DM',1,   1,   2,    20.900,     6.900,     0.000,     0.000,     0.000,     0.000,   5
 44901,'LD',1,   1,   1,     7.540,     2.160,     0.000,     0.000,     0.000,     0.000,   2
 45001,'DM',1,  10,   2,    54.620,    17.100,     0.000,     0.000,     0.000,     0.000,   5
 45101,'LD',1,   1,   1,    13.700,     2.740,     0.000,     0.000,     0.000,     0.000,   2
 46210,'DM',1,   2,   2,    24.000,     7.900,     0.000,     0.000,     0.000,     0.000,   5
 46214,'DM',1,   2,   2,    26.000,     8.500,     0.000,     0.000,     0.000,     0.000,   5
 46224,'DM',1,   2,   2,    31.000,    10.190,     0.000,     0.000,     0.000,     0.000,   5
 46501,'LD',1,   1,   1,    23.710,    19.650,     0.000,     0.000,     0.000,     0.000,   2
 46804,'LD',1,   7,   1,    24.090,    10.730,     0.000,     0.000,     0.000,     0.000,   2
 47004,'LD',1,   9,   1,    32.410,    13.810,     0.000,     0.000,     0.000,     0.000,   2
 47402,'DM',1,   2,   2,    15.200,     5.000,     0.000,     0.000,     0.000,     0.000,   5
 47601,'LD',1,   3,   1,     1.710,     0.560,     0.000,     0.000,     0.000,     0.000,   2
 49474,'HL',1,   5,   1,    13.000,     4.680,     0.000,     0.000,     0.000,     0.000,   3
 49604,'LD',1,  10,   1,    56.060,    25.150,     0.000,     0.000,     0.000,     0.000,   2
 49804,'LD',1,   9,   1,    46.230,    18.950,     0.000,     0.000,     0.000,     0.000,   2
 50004,'LD',1,   9,   1,    25.210,     9.370,     0.000,     0.000,     0.000,     0.000,   2
 50276,'HL',1,   2,   1,     9.990,     3.590,     0.000,     0.000,     0.000,     0.000,   3
 50301,'LD',1,   1,   1,    11.870,     3.900,     0.000,     0.000,     0.000,     0.000,   2
 50573,'HL',1,   7,   2,     0.850,     0.300,     0.000,     0.000,     0.000,     0.000,   4
 50574,'HL',1,   7,   2,     0.850,     0.300,     0.000,     0.000,     0.000,     0.000,   4
 50604,'LD',1,   6,   1,    13.930,     5.240,     0.000,     0.000,     0.000,     0.000,   2
 50901,'LD',1,   7,   1,    10.960,     3.010,     0.000,     0.000,     0.000,     0.000,   2
 51471,'HL',0,   7,   1,     3.000,     1.080,     0.000,     0.000,     0.000,     0.000,   3
 51472,'HL',0,   7,   1,     3.000,     1.080,     0.000,     0.000,     0.000,     0.000,   3
 51473,'HL',0,   7,   1,    15.300,     5.500,     0.000,     0.000,     0.000,     0.000,   3
 51474,'HL',0,   7,   1,    15.300,     5.500,     0.000,     0.000,     0.000,     0.000,   3
 51771,'HL',1,   4,   2,     5.390,     1.940,     0.000,     0.000,     0.000,     0.000,   4
 51801,'LD',1,   3,   1,    15.890,     5.220,     0.000,     0.000,     0.000,     0.000,   2
 51804,'LD',1,   3,   1,    38.810,     6.460,     0.000,     0.000,     0.000,     0.000,   2
 52204,'LD',1,   4,   1,    13.860,     3.850,     0.000,     0.000,     0.000,     0.000,   2
 52476,'HL',0,   9,   1,     0.300,     0.100,     0.000,     0.000,     0.000,     0.000,   3
 52604,'LD',1,   7,   1,    28.430,    11.760,     0.000,     0.000,     0.000,     0.000,   2
 52804,'LD',1,   7,   1,    41.120,    11.130,     0.000,     0.000,     0.000,     0.000,   2
 53004,'LD',1,   5,   1,    34.250,    12.560,     0.000,     0.000,     0.000,     0.000,   2
 53204,'LD',1,   8,   1,    34.250,    15.980,     0.000,     0.000,     0.000,     0.000,   2
 53404,'LD',1,   9,   1,    17.640,     6.850,     0.000,     0.000,     0.000,     0.000,   2
 53604,'LD',1,   9,   1,    14.760,     4.850,     0.000,     0.000,     0.000,     0.000,   2
 53804,'LD',1,   5,   1,    16.260,     7.310,     0.000,     0.000,     0.000,     0.000,   2
 54404,'LD',1,   5,   1,    44.410,    15.290,     0.000,     0.000,     0.000,     0.000,   2
 54801,'DM',1,   3,   2,     7.000,     2.290,     0.000,     0.000,     0.000,     0.000,   5
...
0 / END OF LOAD DATA, BEGIN GENERATOR DATA
 10204,'1 ',     0.893,    -0.280,    -0.280,    -0.280,1.04000,     0,     2.685,   0.00000,   0.25400,   0.00000,   0.06000,1.00000,1,  100.0,     2.550,     0.000,   4,1.0000
 10204,'2 ',     0.231,    -0.070,    -0.070,    -0.070,1.04000,     0,     0.895,   0.00000,   0.25400,   0.00000,   0.20000,1.00000,1,  100.0,     0.660,     0.000,   4,1.0000
 10204,'3 ',     2.625,    -0.820,    -0.820,    -0.820,1.04000,     0,     8.625,   0.00000, 999.00000,   0.00000,   0.20000,1.00000,1,  100.0,     7.500,     0.000,   2,1.0000
 10271,'1 ',    21.000,    15.000,    15.000,    -7.000,1.07500,  1021,    34.000,   0.00000,   0.26000,   0.00000,   0.00000,1.00000,1,   15.0,    21.000,     5.000,   3,1.0000
 10272,'2 ',    21.000,    15.000,    15.000,    -7.000,1.07500,  1021,    34.000,   0.00000,   0.26000,   0.00000,   0.00000,1.00000,1,   15.0,    22.000,     5.000,   3,1.0000
 10273,'3 ',    19.000,     0.000,    15.000,    -7.000,1.07500,  1021,    34.000,   0.00000,   0.26000,   0.00000,   0.00000,1.00000,0,   15.0,    19.000,     5.000,   3,1.0000
 10274,'4 ',    24.000,     0.000,    15.000,    -7.000,1.07500,  1021,    34.000,   0.00000,   0.25000,   0.00000,   0.00000,1.00000,0,   15.0,    24.000,     5.000,   3,1.0000
 10471,'1 ',   270.000,     0.000,   153.000,   -53.000,1.07500,  1042,   318.800,   0.00000,   0.26400,   0.00000,   0.00000,1.00000,0,  153.0,   270.000,    40.000,   3,1.0000
 10472,'11',    90.000,     0.000,    60.000,   -30.000,1.07500,  1072,   100.900,   0.00000,   0.14700,   0.00000,   0.00000,1.00000,0,   60.0,    90.000,    20.000,   3,1.0000
 10473,'12',    90.000,     0.000,    60.000,   -30.000,1.07500,  1052,   100.900,   0.00000,   0.14700,   0.00000,   0.00000,1.00000,0,   60.0,    90.000,    20.000,   3,1.0000
 10474,'14',    90.000,     0.000,    60.000,   -30.000,1.07500,  1072,   100.900,   0.00000,   0.14700,   0.00000,   0.00000,1.00000,0,   60.0,    90.000,    20.000,   3,1.0000
 10475,'5 ',    52.300,     0.000,    32.600,   -22.700,1.07500,  1041,    62.000,   0.00000,   0.25400,   0.00000,   0.00000,1.00000,0,   32.6,    52.300,     1.200,   3,1.0000
 10602,'1 ',     0.420,    -0.130,    -0.130,    -0.130,1.04000,     0,     1.380,   0.00000,   0.25400,   0.00000,   0.20000,1.00000,1,  100.0,     1.200,     0.000,   4,1.0000
 10602,'2 ',     1.680,    -0.520,    -0.520,    -0.520,1.04000,     0,     5.520,   0.00000,   0.25400,   0.00000,   0.20000,1.00000,1,  100.0,     4.800,     0.000,   4,1.0000
 10602,'3 ',     1.750,    -0.550,    -0.550,    -0.550,1.04000,     0,     5.750,   0.00000,   0.25400,   0.00000,   0.20000,1.00000,1,  100.0,     5.000,     0.000,   4,1.0000
 10602,'5 ',     1.890,    -1.770,    -1.770,    -2.300,1.04000,     0,     7.050,   0.00000,   0.25400,   0.00000,   0.05640,1.00000,1,  100.0,     5.400,     0.000,   2,1.0000
 11204,'1 ',     8.820,    -2.750,    -2.750,    -2.750,1.04000,     0,    29.000,   0.00000,   0.25400,   0.00000,   0.20000,1.00000,1,  100.0,    25.200,     0.000,   2,1.0000
 11371,'1 ',    17.850,   -10.937,    11.900,   -11.900,1.07500,  1131,    58.650,   0.00000,   0.25400,   0.00000,   0.00000,1.00000,1,  100.0,    51.000,     0.000,   4,1.0000
 12371,'1 ',    14.700,     9.700,     9.700,    -9.700,1.07500,  1231,    42.000,   0.00000,   0.25400,   0.00000,   0.00000,1.00000,1,  100.0,    42.000,     0.000,   4,1.0000
 12571,'1 ',     6.807,     4.490,     4.490,    -4.490,1.07500,  1251,    23.925,   0.00000,   0.25400,   0.00000,   0.00000,1.00000,1,  100.0,    19.450,     0.000,   4,1.0000
 12804,'1 ',     2.975,    -0.930,    -0.930,    -0.930,1.04000,     0,     8.950,   0.00000,   0.25400,   0.00000,   0.20000,1.00000,1,  100.0,     8.500,     0.000,   2,1.0000
 12804,'2 ',     6.842,    -2.140,    -2.140,    -2.140,1.04000,     0,    20.585,   0.00000,   0.25400,   0.00000,   0.20000,1.00000,1,  100.0,    19.550,     0.000,   2,1.0000
 13404,'1 ',     0.231,    -0.070,    -0.070,    -0.070,1.04000,     0,     0.759,   0.00000,   0.25400,   0.00000,   0.20000,1.00000,1,  100.0,     0.660,     0.000,   4,1.0000
 13404,'2 ',     0.893,    -0.280,    -0.280,    -0.280,1.04000,     0,     2.685,   0.00000,   0.25400,   0.00000,   0.20000,1.00000,1,  100.0,     2.550,     0.000,   2,1.0000
 13404,'3 ',     4.165,    -1.300,    -1.300,    -1.300,1.04000,     0,    13.685,   0.00000,   0.25400,   0.00000,   0.20000,1.00000,1,  100.0,    11.900,     0.000,   2,1.0000
 13404,'4 ',     5.250,    -1.640,    -1.640,    -1.640,1.04000,     0,    17.170,   0.00000,   0.25400,   0.00000,   0.20000,1.00000,1,  100.0,    15.000,     0.000,   2,1.0000
 13404,'5 ',     2.100,    -0.660,    -0.660,    -0.660,1.04000,     0,     6.900,   0.00000,   0.25400,   0.00000,   0.20000,1.00000,1,  100.0,     6.000,     0.000,   2,1.0000
 13404,'6 ',     2.678,    -0.840,    -0.840,    -0.840,1.04000,     0,     8.055,   0.00000,   0.25400,   0.00000,   0.20000,1.00000,1,  100.0,     7.650,     0.000,   2,1.0000
 14002,'3 ',     2.257,    -0.700,    -0.700,    -0.700,1.04000,     0,     7.418,   0.00000,   0.25400,   0.00000,   0.10000,1.00000,1,  100.0,     6.450,     0.000,   3,1.0000
 14404,'1 ',     1.575,    -0.490,    -0.490,    -0.490,1.04000,     0,     5.151,   0.00000,   0.25400,   0.00000,   0.20000,1.00000,1,  100.0,     4.500,     0.000,   2,1.0000
 14604,'1 ',     4.800,     0.000,     1.000,    -1.000,1.05000,     0,     7.000,   0.00000,   0.14800,   0.00000,   0.10000,1.00000,0,    1.0,     4.800,     0.000,   5,1.0000
 14804,'1 ',     0.595,    -0.190,    -0.190,    -0.190,1.04000,     0,     1.790,   0.00000,   0.25400,   0.00000,   0.20000,1.00000,1,  100.0,     1.700,     0.000,   4,1.0000
 16371,'1 ',     1.190,    -0.770,     0.490,    -0.770,1.01500, 16302,     3.580,   0.00000,   0.25400,   0.00000,   0.10000,1.00000,1,  100.0,     3.400,     0.000,   1,1.0000
 16372,'2 ',     1.190,    -0.770,     0.490,    -0.770,1.00000,     0,     3.580,   0.00000,   0.25400,   0.00000,   0.10000,1.00000,1,  100.0,     3.400,     0.000,   1,1.0000
 16373,'3 ',     2.380,    -1.410,     0.980,    -1.610,1.01500, 16302,     7.160,   0.00000,   0.25400,   0.00000,   0.10000,1.00000,1,  100.0,     6.800,     0.000,   1,1.0000
 16374,'4 ',     2.660,    -1.410,     1.760,    -1.760,1.01500, 16302,     8.055,   0.00000,   0.25400,   0.00000,   0.10000,1.00000,1,  100.0,     7.600,     0.000,   1,1.0000
 16375,'5 ',     1.487,    -0.980,     0.980,    -0.980,1.01500, 16302,     4.475,   0.00000,   0.25400,   0.00000,   0.10000,1.00000,1,  100.0,     4.250,     0.000,   1,1.0000
 16376,'6 ',     1.732,    -0.540,    -0.540,    -0.540,1.00000,     0,     5.370,   0.00000,   0.25400,   0.00000,   0.10000,1.00000,1,  100.0,     4.950,     0.000,   4,1.0000
 16377,'1 ',     3.150,     2.100,     2.100,    -2.100,1.07500,  1631,     9.570,   0.00000,   0.25400,   0.00000,   0.00000,1.00000,1,  100.0,     9.000,     0.000,   1,1.0000
 16378,'1 ',     0.559,    -0.530,    -0.530,    -0.680,1.04000,     0,     1.790,   0.00000,   0.25400,   0.00000,   0.00000,1.00000,1,  100.0,     1.598,     0.000,   1,1.0000
 16571,'1 ',    13.230,     2.645,     8.770,    -8.770,1.07500,  1651,    39.000,   0.00000,   0.25400,   0.00000,   0.00000,1.00000,1,  100.0,    37.800,     0.000,   4,1.0000
 16602,'1 ',     1.190,    -0.370,    -0.370,    -0.370,1.04000,     0,     3.580,   0.00000,   0.25400,   0.00000,   0.06000,1.00000,1,  100.0,     3.400,     0.000,   4,1.0000
 16604,'2 ',     6.545,    -2.040,    -2.040,    -2.040,1.00000,     0,    19.690,   0.00000,   0.25400,   0.00000,   0.20000,1.00000,1,  100.0,    18.700,     0.000,   4,1.0000
 16604,'3 ',     0.735,    -0.230,    -0.230,    -0.230,1.00000,     0,     2.300,   0.00000,   0.25400,   0.00000,   0.00000,1.00000,1,  100.0,     2.100,     0.000,   2,1.0000
 16873,'3 ',     2.000,     7.000,     7.000,    -1.000,1.07500,  1681,    11.500,   0.00000,   0.31700,   0.00000,   0.00000,1.00000,1,    7.0,     8.000,     2.000,   3,1.0000
 17004,'5 ',     0.693,    -0.220,    -0.220,    -0.220,1.04000,     0,     3.100,   0.00000,   0.25400,   0.00000,   0.20000,1.00000,1,  100.0,     1.980,     0.000,   4,1.0000
 17004,'6 ',     0.385,    -0.120,    -0.120,    -0.120,1.04000,     0,     1.500,   0.00000,   0.25400,   0.00000,   0.20000,1.00000,1,  100.0,     1.100,     0.000,   4,1.0000
 17004,'7 ',     1.190,    -0.370,    -0.370,    -0.370,1.04000,     0,     3.580,   0.00000,   0.25400,   0.00000,   0.20000,1.00000,1,  100.0,     3.400,     0.000,   2,1.0000
 17073,'3 ',    22.500,     3.805,     7.000,   -10.000,1.05000,  1701,    30.000,   0.00000,   0.25400,   0.00000,   0.00000,1.00000,1,    7.0,    22.500,     5.000,   3,1.0000
 17074,'4 ',    22.500,     0.000,     7.000,   -10.000,1.05000,  1701,    30.000,   0.00000,   0.25400,   0.00000,   0.00000,1.00000,0,    7.0,    22.500,     5.000,   3,1.0000
 17671,'1 ',    10.000,     3.805,     7.000,    -3.000,1.05000,  1701,    12.500,   0.00000,   0.19000,   0.00000,   0.00000,1.00000,1,    7.0,    10.000,     3.000,   3,1.0000
 17672,'2 ',    10.000,     0.000,     7.000,    -3.000,1.05000,  1701,    12.500,   0.00000,   0.19000,   0.00000,   0.00000,1.00000,0,    7.0,    10.000,     3.000,   3,1.0000
 17771,'1 ',    14.429,     0.742,     9.590,    -9.590,1.07500,  2771,    42.925,   0.00000,   0.25400,   0.00000,   0.00000,1.00000,1,  100.0,    41.225,     0.000,   4,1.0000
 18404,'1 ',     1.747,    -0.550,    -0.550,    -0.550,1.04000,     0,     5.739,   0.00000,   0.25400,   0.00000,   0.20000,1.00000,1,  100.0,     4.990,     0.000,   2,1.0000
 18802,'1 ',     1.050,    -0.330,    -0.330,    -0.330,1.04000,     0,     3.125,   0.00000,   0.25400,   0.00000,   0.07962,1.00000,1,  100.0,     3.000,     0.000,   1,1.0000
 19071,'1 ',     0.893,    -0.280,    -0.280,    -0.280,1.04000,     0,     2.685,   0.00000,   0.25400,   0.00000,   0.06000,1.00000,1,  100.0,     2.550,     0.000,   4,1.0000
 19071,'2 ',     0.595,    -0.560,    -0.560,    -0.730,1.04000,     0,     1.790,   0.00000,   0.25400,   0.00000,   0.06000,1.00000,1,  100.0,     1.700,     0.000,   4,1.0000
 19072,'1 ',     1.750,    -0.550,    -0.550,    -0.550,1.04000,     0,     7.050,   0.00000,   0.25400,   0.00000,   0.05640,1.00000,1,  100.0,     4.999,     0.000,   4,1.0000
 19072,'2 ',     1.575,    -0.490,    -0.490,    -0.490,1.04000,     0,     4.700,   0.00000,   0.25400,   0.00000,   0.05647,1.00000,1,  100.0,     4.500,     0.000,   4,1.0000
 19371,'1 ',    12.180,    -5.360,    -5.360,    -5.360,1.07500,  1931,    36.500,   0.00000,   0.25400,   0.00000,   0.00000,1.00000,1,  100.0,    34.800,     0.000,   4,1.0000
 19471,'1 ',   130.000,    57.331,    75.000,   -50.000,1.07500,  1941,   153.000,   0.00000,   0.18800,   0.00000,   0.00000,1.00000,1,   75.0,   130.000,    60.000,   4,1.0000
 19771,'1 ',    14.875,     5.375,     5.950,    -9.940,1.07500,  1971,    45.000,   0.00000,   0.25400,   0.00000,   0.00000,1.00000,1,  100.0,    42.500,     0.000,   4,1.0000
 21004,'1 ',     2.625,    -0.820,    -0.820,    -0.820,1.04000,     0,     8.625,   0.00000,   0.25400,   0.00000,   0.20000,1.00000,1,  100.0,     7.500,     0.000,   4,1.0000
 21004,'2 ',     0.175,    -0.050,    -0.050,    -0.050,1.04000,     0,     0.895,   0.00000,   0.25400,   0.00000,   0.20000,1.00000,1,  100.0,     0.500,     0.000,   2,1.0000
 21402,'1 ',     0.595,    -0.560,    -0.560,    -0.730,1.04000,     0,     1.790,   0.00000,   0.25400,   0.00000,   0.06000,1.00000,1,  100.0,     1.700,     0.000,   1,1.0000
 21802,'1 ',     0.595,    -0.190,    -0.190,    -0.190,1.04000,     0,     1.790,   0.00000,   0.25400,   0.00000,   0.06000,1.00000,1,  100.0,     1.700,     0.000,   4,1.0000
 21802,'2 ',     1.050,    -0.990,    -0.990,    -1.280,1.04000,     0,     3.125,   0.00000,   0.25400,   0.00000,   0.07962,1.00000,1,  100.0,     3.000,     0.000,   1,1.0000
 22204,'1 ',     1.617,    -0.500,    -0.500,    -0.500,1.04000,     0,     5.313,   0.00000,   0.25400,   0.00000,   0.20000,1.00000,1,  100.0,     4.620,     0.000,   3,1.0000
 22204,'2 ',     2.079,    -0.650,    -0.650,    -0.650,1.04000,     0,     6.831,   0.00000,   0.25400,   0.00000,   0.20000,1.00000,1,  100.0,     5.940,     0.000,   3,1.0000
 22204,'3 ',     2.082,    -0.650,    -0.650,    -0.650,1.04000,     0,     6.868,   0.00000,   0.25400,   0.00000,   0.20000,1.00000,1,  100.0,     5.950,     0.000,   4,1.0000
 22204,'4 ',     1.487,    -0.460,    -0.460,    -0.460,1.04000,     0,     5.000,   0.00000,   0.20000,   0.00000,   0.20000,1.00000,1,  100.0,     4.250,     0.000,   4,1.0000
 22371,'1 ',    20.825,     8.330,     8.330,   -13.880,1.07500,  2231,    62.650,   0.00000,   0.25400,   0.00000,   0.00000,1.00000,1,  100.0,    59.500,     0.000,   4,1.0000
 22404,'1 ',     0.893,    -0.280,    -0.280,    -0.280,1.04000,     0,     2.685,   0.00000,   0.20000,   0.00000,   0.20000,1.00000,1,  100.0,     2.550,     0.000,   4,1.0000
 22404,'2 ',     1.487,    -0.460,    -0.460,    -0.460,1.04000,     0,     5.000,   0.00000,   0.20000,   0.00000,   0.20000,1.00000,1,  100.0,     4.250,     0.000,   4,1.0000
 22671,'1 ',    52.100,     0.000,    32.600,   -22.700,1.07500,  2261,    62.000,   0.00000,   0.25400,   0.00000,   0.00000,1.00000,0,   32.6,    52.100,     1.200,   3,1.0000
 22672,'2 ',    52.100,     0.000,    32.600,   -22.700,1.07500,  2261,    62.000,   0.00000,   0.25400,   0.00000,   0.00000,1.00000,0,   32.6,    52.100,     1.200,   3,1.0000
 22802,'1 ',     0.893,    -0.840,    -0.840,    -1.090,1.04000,     0,     2.685,   0.00000,   0.25400,   0.00000,   0.06000,1.00000,1,  100.0,     2.550,     0.000,   1,1.0000
 27204,'5 ',     4.000,     0.000,     1.000,    -1.000,1.04000,     0,     5.000,   0.00000,   0.30000,   0.00000,   0.10000,1.00000,0,    1.0,     4.000,     0.000,   3,1.0000
 27371,'1 ',     4.480,    -3.010,     1.820,    -3.010,1.07500,  2731,    15.215,   0.00000,   0.25400,   0.00000,   0.00000,1.00000,1,  100.0,    12.800,     0.000,   4,1.0000
 27372,'2 ',     5.950,    -3.990,     2.380,    -3.990,1.07500,  2731,    18.750,   0.00000,   0.25400,   0.00000,   0.00000,1.00000,1,  100.0,    17.000,     0.000,   4,1.0000
 27402,'1 ',     1.487,    -1.400,    -1.400,    -1.810,1.04000,     0,     4.475,   0.00000,   0.25400,   0.00000,   0.06000,1.00000,1,  100.0,     4.250,     0.000,   1,1.0000
 27471,'1 ',    57.000,     0.000,    42.000,    -3.000,1.07500,  2741,    75.000,   0.00000,   0.20300,   0.00000,   0.00000,1.00000,0,   42.0,    57.000,    25.000,   3,1.0000
 27472,'2 ',    57.000,     0.000,    40.000,    -3.000,1.07500,  2741,    75.000,   0.00000,   0.20300,   0.00000,   0.00000,1.00000,0,   40.0,    57.000,    25.000,   3,1.0000
 27473,'3 ',    90.000,    82.000,    82.000,   -48.000,1.07500,  2742,   150.000,   0.00000,   0.18500,   0.00000,   0.00000,1.00000,1,   82.0,   116.000,    30.000,   3,1.0000
 27804,'1 ',     1.155,    -0.360,    -0.360,    -0.360,1.04000,     0,     3.795,   0.00000,   0.25400,   0.00000,   0.20000,1.00000,1,  100.0,     3.300,     0.000,   4,1.0000
 27804,'2 ',     0.236,    -0.070,    -0.070,    -0.070,1.04000,     0,     0.776,   0.00000,   0.25400,   0.00000,   0.20000,1.00000,1,  100.0,     0.675,     0.000,   2,1.0000
 28002,'1 ',     5.250,    -2.170,    -2.170,    -2.170,1.00000,     0,    17.250,   0.00000,   0.25400,   0.00000,   0.10000,1.00000,1,  100.0,    15.000,     0.000,   4,1.0000
 28571,'1 ',   450.470,     0.000,   282.100,  -196.800,1.07500,  1062,   535.500,   0.00000,   0.24500,   0.00000,   0.00000,1.00000,0,  282.1,   450.470,   110.100,   4,1.0000
 28804,'2 ',     8.855,    -2.760,    -2.760,    -2.760,1.04000,     0,    28.578,   0.00000,   0.20000,   0.00000,   0.20000,1.00000,1,  100.0,    25.300,     0.000,   4,1.0000
 28814,'1 ',     3.675,    -1.150,    -1.150,    -1.150,1.04000,     0,    12.019,   0.00000,   0.25400,   0.00000,   0.20000,1.00000,1,  100.0,    10.500,     0.000,   2,1.0000
 29671,'ST',   120.000,    10.068,    90.000,   -47.000,1.07500,  2562,   150.000,   0.00000,   0.18800,   0.00000,   0.00000,1.00000,1,   90.0,   120.000,    40.000,   4,1.0000
 29672,'CT',   230.000,    19.353,   173.000,  -106.000,1.07500,  2562,   288.000,   0.00000,   0.17900,   0.00000,   0.00000,1.00000,1,  173.0,   230.000,   138.000,   4,1.0000
 29673,'2 ',   380.000,    27.855,   249.000,  -100.000,1.07500,  2562,   473.000,   0.00500,   0.25600,   0.00000,   0.00000,1.00000,1,  249.0,   400.000,   257.000,   4,1.0000
 30671,'1 ',     4.000,    13.000,    13.000,    -4.000,1.07500,  3061,    21.400,   0.00000,   0.20300,   0.00000,   0.00000,1.00000,1,    3.0,    15.000,     4.000,   3,1.0000
 30671,'2 ',     1.000,     3.000,     3.000,    -1.000,1.07500,  3061,     5.700,   0.00000,   0.17800,   0.00000,   0.00000,1.00000,1,    3.0,     4.000,     1.000,   3,1.0000
 31002,'1 ',     0.893,    -0.280,    -0.280,    -0.280,1.04000,     0,     2.685,   0.00000,   0.25400,   0.00000,   0.06000,1.00000,1,  100.0,     2.550,     0.000,   1,1.0000
 31004,'1 ',     0.893,    -0.280,    -0.280,    -0.280,1.04000,     0,     2.685,   0.00000,   0.25400,   0.00000,   0.20000,1.00000,1,  100.0,     2.550,     0.000,   2,1.0000
 31271,'1 ',   380.000,    73.772,   200.000,  -114.000,1.07500,  3122,   500.000,   0.00000,   0.27000,   0.00000,   0.00000,1.00000,1,  200.0,   409.900,   163.000,   4,1.0000
 32404,'1 ',     4.100,     0.000,     1.000,    -1.000,1.04000,     0,     4.800,   0.00000,   0.25000,   0.00000,   0.06000,1.00000,0,    1.0,     4.100,     0.000,   2,1.0000
 32604,'1 ',     7.500,     0.000,     1.000,    -1.000,1.05000,     0,     8.500,   0.00000,   0.14800,   0.00000,   0.10000,1.00000,0,    1.0,     7.500,     0.000,   5,1.0000
 33004,'1 ',     3.272,    -1.020,    -1.020,    -1.020,1.04000,     0,     9.845,   0.00000,   0.25400,   0.00000,   0.20000,1.00000,1,  100.0,     9.350,     0.000,   2,1.0000
 35002,'1 ',     1.750,    -1.640,    -1.640,    -2.130,1.04000,     0,     6.045,   0.00000,   0.25400,   0.00000,   0.06717,1.00000,1,  100.0,     5.000,     0.000,   2,1.0000
 35074,'4 ',   100.000,    60.000,    60.000,   -20.000,1.07500,  3501,   121.100,   0.00500,   0.23000,   0.00000,   0.00000,1.00000,1,   60.0,   100.000,    25.000,   3,1.0000
 35771,'1 ',   250.000,    42.282,   250.000,   -80.000,1.07500,  3572,   500.000,   0.00000,   0.22500,   0.00000,   0.00000,1.00000,1,  250.0,   442.960,   222.000,   1,1.0000
 35802,'1 ',     0.893,    -0.280,    -0.280,    -0.280,1.04000,     0,     2.685,   0.00000,   0.25400,   0.00000,   0.06000,1.00000,1,  100.0,     2.550,     0.000,   4,1.0000
 35802,'2 ',     0.893,    -0.280,    -0.280,    -0.280,1.04000,     0,     2.685,   0.00000,   0.25400,   0.00000,   0.06000,1.00000,1,  100.0,     2.550,     0.000,   4,1.0000
 35804,'1 ',     5.250,    -1.640,    -1.640,    -1.640,1.04000,     0,    17.250,   0.00000,   0.25400,   0.00000,   0.20000,1.00000,1,  100.0,    15.000,     0.000,   4,1.0000
 35804,'2 ',     1.743,    -0.540,    -0.540,    -0.540,1.04000,     0,     5.727,   0.00000,   0.25400,   0.00000,   0.20000,1.00000,1,  100.0,     4.980,     0.000,   4,1.0000
 35804,'3 ',     4.158,    -1.300,    -1.300,    -1.300,1.04000,     0,    13.662,   0.00000,   0.25400,   0.00000,   0.20000,1.00000,1,  100.0,    11.880,     0.000,   4,1.0000
 35804,'6 ',     1.785,    -0.560,    -0.560,    -0.560,1.04000,     0,     5.370,   0.00000,   0.25400,   0.00000,   0.20000,1.00000,1,  100.0,     5.100,     0.000,   2,1.0000
 38002,'1 ',     0.595,    -0.560,    -0.560,    -0.730,1.04000,     0,     1.790,   0.00000,   0.25400,   0.00000,   0.06000,1.00000,1,  100.0,     1.700,     0.000,   1,1.0000
 38204,'1 ',     3.675,    -1.150,    -1.150,    -1.150,1.04000,     0,    12.019,   0.00000,   0.25400,   0.00000,   0.20000,1.00000,1,  100.0,    10.500,     0.000,   4,1.0000
 38204,'2 ',     1.575,    -0.490,    -0.490,    -0.490,1.04000,     0,     5.151,   0.00000,   0.25400,   0.00000,   0.20000,1.00000,1,  100.0,     4.500,     0.000,   4,1.0000
 38804,'1 ',     5.250,    -1.640,    -1.640,    -1.640,1.04000,     0,    17.250,   0.00000,   0.25400,   0.00000,   0.20000,1.00000,1,  100.0,    15.000,     0.000,   2,1.0000
 39471,'1 ',   280.000,    64.071,   160.000,   -70.000,1.07500,  3934,   359.000,   0.00000,   0.19500,   0.00000,   0.00000,1.00000,1,  160.0,   302.500,   115.000,   3,1.0000
 39472,'2 ',   280.000,    62.890,   160.000,   -70.000,1.07500,  3954,   359.000,   0.00000,   0.19500,   0.00000,   0.00000,1.00000,1,  160.0,   302.500,   115.000,   3,1.0000
 39473,'3 ',   280.000,    64.071,   160.000,   -70.000,1.07500,  3944,   359.000,   0.00000,   0.19500,   0.00000,   0.00000,1.00000,1,  160.0,   302.500,   115.000,   3,1.0000
 39474,'4 ',     7.665,    -2.390,    -2.390,    -2.390,1.04000,     0,    22.725,   0.00000,   0.20000,   0.00000,   0.00000,1.00000,1,  100.0,    21.900,     0.000,   3,1.0000
 39672,'2 ',    30.000,     0.000,    15.000,     0.000,1.07500,  3961,    40.000,   0.00000,   0.15500,   0.00000,   0.00000,1.00000,0,   15.0,    30.000,    10.000,   3,1.0000
 39675,'GT',    60.000,    60.000,    60.000,   -19.000,1.07500,  3961,   100.900,   0.00000,   0.14700,   0.00000,   0.00000,1.00000,1,   60.0,    90.000,    60.000,   3,1.0000
 40204,'1 ',     7.000,    -2.190,    -2.190,    -2.190,1.04000,     0,    23.000,   0.00000,   0.25400,   0.00000,   0.20000,1.00000,1,  100.0,    20.000,     0.000,   4,1.0000
 40404,'1 ',     2.100,    -0.660,    -0.660,    -0.660,1.04000,     0,    10.000,   0.00000,   0.25400,   0.00000,   0.20000,1.00000,1,  100.0,     6.000,     0.000,   4,1.0000
 40771,'1 ',    18.515,     0.000,     0.000,     0.000,1.00000,     0,    59.800,   0.00000,   0.25400,   0.00000,   0.00000,1.00000,1,  100.0,    52.900,     0.000,   4,1.0000
 40772,'2 ',     6.321,     0.000,     0.000,     0.000,1.00000,     0,    21.900,   0.00000,   0.25400,   0.00000,   0.00000,1.00000,1,  100.0,    18.060,     0.000,   4,1.0000
 40773,'3 ',     4.900,     1.960,     1.960,    -3.290,1.07500,  4071,    14.720,   0.00000,   0.25400,   0.00000,   0.00000,1.00000,1,  100.0,    14.000,     0.000,   7,1.0000
 42202,'1 ',     1.750,    -1.640,    -1.640,    -2.130,1.04000,     0,     6.045,   0.00000,   0.25400,   0.00000,   0.06717,1.00000,1,  100.0,     5.000,     0.000,   1,1.0000
...